)PANEL VERSION=1 FORMAT=1
)COMMENT
 Panel to display/delete pool variables
)ENDCOMMENT

)INCLUDE STD_PDC
)INCLUDE HLP_PDC

)BODY
PanelTitle "Display/Reload Application Modules (Dynamically Loaded Classes)"

literal  4   2          FP    "Command ===> "
field    4  15  MAX-17  NEF CAPS(ON),PAD(USER) ZCMD

literal  4  MAX-15  FP "Scroll ===> "
field    4  MAX-3  4 NEF  NONE ZSCROLL

literal  6 2 CH "S Application Status           Module               Loaded From Path"
literal  7 2 CH EXPAND "-"

tbmodel  8   MAX
tbfield  2    1    NEF caps(on),PAD(USER) SEL
tbfield  ++1  8    VOI NONE APPL
tbfield  ++4  16   VOI NONE STATUS
tbfield  ++1  20   VOI NONE MOD
tbfield  ++1  40   VOI NONE MODPATH

)INIT
VGET ZSCROLL PROFILE
IF (&ZSCROLL = &Z) &ZSCROLL = &ZSCROLLD

.ATTR(STATUS)  = 'COLOUR(WHITE)'
.ATTR(MOD)     = 'COLOUR(YELLOW)'
.ATTR(MODPATH) = 'COLOUR(GREEN)'

)PROC
.HELP=HPSP01A

&W1 = TRUNC( &ZCMD, ' ' )
IF (&W1 NE SORT,&Z)
   .MSG    = PSYS018
   .CURSOR = ZCMD
   EXIT

VER (&SEL LIST,R)

IF (.MSG = &Z ) VPUT ZSCROLL PROFILE

)END
